Version 4
SHEET 1 1016 680
WIRE 96 0 -224 0
WIRE 384 0 96 0
WIRE 448 0 384 0
WIRE 544 0 448 0
WIRE 688 0 544 0
WIRE 544 32 544 0
WIRE 384 80 384 0
WIRE 384 80 320 80
WIRE 96 96 96 80
WIRE 240 96 96 96
WIRE 384 112 320 112
WIRE 240 128 32 128
WIRE 384 128 384 112
WIRE 544 128 544 112
WIRE 96 144 96 96
WIRE 352 144 320 144
WIRE -224 160 -224 0
WIRE 352 160 352 144
WIRE 640 160 352 160
WIRE 32 208 32 128
WIRE 32 208 -176 208
WIRE 640 224 640 160
WIRE 640 224 608 224
WIRE 496 240 480 240
WIRE 448 256 448 0
WIRE 448 256 320 256
WIRE 688 256 688 0
WIRE 688 256 608 256
WIRE 32 272 32 208
WIRE 240 272 32 272
WIRE 496 272 464 272
WIRE 384 288 320 288
WIRE 688 288 608 288
WIRE 96 304 96 224
WIRE 240 304 96 304
WIRE 464 320 464 272
WIRE 464 320 320 320
WIRE -224 336 -224 240
WIRE 96 336 96 304
WIRE 688 336 688 288
WIRE 96 448 96 416
WIRE 128 448 96 448
WIRE 384 448 384 288
WIRE 384 448 128 448
WIRE 480 448 480 240
WIRE -224 480 -224 416
WIRE 128 480 128 448
FLAG 128 480 0
FLAG 384 128 0
FLAG 544 128 0
FLAG 688 336 0
FLAG -224 480 0
SYMBOL AutoGenerated\\LF356_NS 272 112 R0
SYMATTR InstName highLimit
SYMBOL AutoGenerated\\LF356_NS 272 288 R0
SYMATTR InstName lowLimit
SYMBOL res 80 -16 R0
SYMATTR InstName R1
SYMBOL res 80 128 R0
SYMATTR InstName R2
SYMBOL res 80 320 R0
SYMATTR InstName R3
SYMBOL voltage 544 16 R0
WINDOW 123 0 0 Left 0
WINDOW 39 0 0 Left 0
SYMATTR InstName Vps
SYMATTR Value 6V
SYMBOL pot -240 144 R0
SYMATTR InstName passKnob
SYMBOL AutoGenerated\\SN7400 544 256 R0
SYMATTR InstName NAND
SYMBOL res -240 320 R0
SYMATTR InstName RTrans
SYMATTR Value 1820
TEXT -192 48 Left 2 !.include pot.sub.
TEXT -192 80 Left 2 !.inc 74hc.lib
TEXT 496 432 Left 2 ;Vout
TEXT -24 192 Left 2 ;Vin
